<?xml version="1.0" encoding="UTF-8"?>

<!-- generated on 2021-12-17 00:10:49 by Eclipse SUMO polyconvert Version 1.11.0
<configuration xmlns:xsi="http://www.w3.org/2001/XMLSchema-instance" xsi:noNamespaceSchemaLocation="http://sumo.dlr.de/xsd/polyconvertConfiguration.xsd">

    <input>
        <net-file value="Mindelo.net.xml"/>
        <osm-files value="Mindelo.osm"/>
        <type-file value="osmPolyconvert.typ.xml"/>
    </input>

    <output>
        <output-file value="Mindelo.poly.xml"/>
    </output>

    <processing>
        <poi-layer-offset value="5"/>
    </processing>

</configuration>
-->

<additional xmlns:xsi="http://www.w3.org/2001/XMLSchema-instance" xsi:noNamespaceSchemaLocation="http://sumo.dlr.de/xsd/additional_file.xsd">
    <location netOffset="-714145.84,-1867803.65" convBoundary="-10194.22,-11870.99,13970.53,4324.55" origBoundary="-25.085987,16.776596,-24.858942,16.922350" projParameter="+proj=utm +zone=26 +ellps=WGS84 +datum=WGS84 +units=m +no_defs"/>

    <poly id="189718576" type="tourism" color="207,245,201" fill="1" layer="-2.00" shape="324.252606,313.059528 362.890834,308.351193 356.149208,258.869208 318.155046,264.159743 324.252606,313.059528"/>
    <poly id="194995967" type="building" color="255,230,230" fill="1" layer="-1.00" shape="69.762274,330.220922 108.516251,331.911329 112.599998,360.965454 68.180155,358.907304 69.762274,330.220922"/>
    <poly id="194995971" type="amenity" color="237,199,199" fill="1" layer="-1.00" shape="63.261460,393.946602 92.510485,395.495773 93.930175,369.154408 65.064622,367.620221 64.591028,376.437568 83.252373,377.435967 82.819207,385.423535 63.774360,384.410155 63.261460,393.946602"/>
    <poly id="194995971#1" type="building" color="255,230,230" fill="1" layer="-1.00" shape="63.261460,393.946602 92.510485,395.495773 93.930175,369.154408 65.064622,367.620221 64.591028,376.437568 83.252373,377.435967 82.819207,385.423535 63.774360,384.410155 63.261460,393.946602"/>
    <poly id="194995972" type="building" color="255,230,230" fill="1" layer="-1.00" shape="61.883360,222.901852 60.303183,212.735252 88.322663,208.427292 89.913484,218.594004 61.883360,222.901852"/>
    <poly id="194995977" type="amenity" color="237,199,199" fill="1" layer="-1.00" shape="184.050867,241.471490 176.754414,214.985834 200.372713,208.563164 207.669140,235.048832 184.050867,241.471490"/>
    <poly id="194995977#1" type="building" color="255,230,230" fill="1" layer="-1.00" shape="184.050867,241.471490 176.754414,214.985834 200.372713,208.563164 207.669140,235.048832 184.050867,241.471490"/>
    <poly id="194995978" type="amenity" color="237,199,199" fill="1" layer="-1.00" shape="80.133212,316.501231 77.789447,303.880538 83.896870,302.758425 82.633936,295.971173 92.051219,294.251876 94.535809,307.693131 95.647249,313.659716 92.262576,314.278275 80.133212,316.501231"/>
    <poly id="194995978#1" type="building" color="255,230,230" fill="1" layer="-1.00" shape="80.133212,316.501231 77.789447,303.880538 83.896870,302.758425 82.633936,295.971173 92.051219,294.251876 94.535809,307.693131 95.647249,313.659716 92.262576,314.278275 80.133212,316.501231"/>
    <poly id="194995980" type="amenity" color="237,199,199" fill="1" layer="-1.00" shape="4.764757,289.332507 -1.869555,298.230938 18.599379,315.320220 31.743873,314.922935 39.478345,315.189987 39.526689,301.044004 39.557497,292.797742 39.587083,282.581145 27.883074,282.804939 27.226103,302.291152 21.142546,302.118425 4.764757,289.332507"/>
    <poly id="194995980#1" type="building" color="255,230,230" fill="1" layer="-1.00" shape="4.764757,289.332507 -1.869555,298.230938 18.599379,315.320220 31.743873,314.922935 39.478345,315.189987 39.526689,301.044004 39.557497,292.797742 39.587083,282.581145 27.883074,282.804939 27.226103,302.291152 21.142546,302.118425 4.764757,289.332507"/>
    <poly id="194995981" type="amenity" color="237,199,199" fill="1" layer="-1.00" shape="193.167507,293.235731 187.706043,273.875244 181.926083,253.349239 194.569671,249.825414 204.904629,246.953259 210.592505,267.101978 216.156673,286.839876 205.928520,289.690975 193.167507,293.235731"/>
    <poly id="194995981#1" type="building" color="255,230,230" fill="1" layer="-1.00" shape="193.167507,293.235731 187.706043,273.875244 181.926083,253.349239 194.569671,249.825414 204.904629,246.953259 210.592505,267.101978 216.156673,286.839876 205.928520,289.690975 193.167507,293.235731"/>
    <poly id="194995982" type="amenity" color="237,199,199" fill="1" layer="-1.00" shape="161.406007,182.783785 158.820651,175.042150 175.598379,169.523749 174.026397,164.825421 187.093535,160.531061 193.443015,179.557458 175.916753,185.322799 173.714052,178.725196 161.406007,182.783785"/>
    <poly id="194995982#1" type="building" color="255,230,230" fill="1" layer="-1.00" shape="161.406007,182.783785 158.820651,175.042150 175.598379,169.523749 174.026397,164.825421 187.093535,160.531061 193.443015,179.557458 175.916753,185.322799 173.714052,178.725196 161.406007,182.783785"/>
    <poly id="194995983" type="building" color="255,230,230" fill="1" layer="-1.00" shape="300.563196,320.189755 299.570061,310.992140 295.014438,311.476950 292.055654,283.950734 291.676448,280.382565 295.047881,280.018494 293.860487,268.970333 301.446103,268.162242 302.545159,278.467863 309.949391,277.680062 313.492487,310.602973 308.659463,311.118156 309.535795,319.229793 300.563196,320.189755"/>
    <poly id="194996001" type="tourism" color="207,245,201" fill="1" layer="-2.00" shape="56.536800,311.390101 57.019602,311.074018 57.449913,310.679914 57.806308,310.218641 58.088674,309.701267 58.275474,309.149711 58.366593,308.575040 58.372576,307.988432 58.282427,307.422981 58.085604,306.867512 57.813735,306.355555 57.456166,305.887001 57.033869,305.495271 56.546957,305.169297 56.016631,304.920365 55.442664,304.770612 54.867794,304.709403 54.281252,304.747698 53.704463,304.874646 53.169283,305.101642 52.654512,305.417399 52.213545,305.811395 51.835837,306.272450 51.532159,306.789607 51.334591,307.352123 51.222046,307.937644 51.216064,308.524252 51.305874,309.122907 51.502698,309.678376 51.784997,310.212578 52.142566,310.681132 52.586062,311.084148 53.083630,311.410230 53.635381,311.648311 54.220004,311.798173 54.816412,311.837463 55.413723,311.788209 55.990738,311.639124 56.536800,311.390101"/>
    <poly id="194996008" type="leisure" color="207,245,201" fill="1" layer="-2.00" shape="58.725302,226.378590 54.905066,226.859884 57.073218,300.592003 108.220185,288.848987 101.656702,252.142870 94.814809,221.831936 58.725302,226.378590"/>
    <poly id="415552970" type="leisure" color="207,245,201" fill="1" layer="-2.00" shape="190.322520,152.195666 185.048415,136.401393 237.830848,119.007873 240.788402,127.871313 209.510091,138.200704 211.816187,145.109305 190.322520,152.195666"/>
    <poly id="415858254" type="leisure" color="207,245,201" fill="1" layer="-2.00" shape="262.706613,273.389917 260.789058,273.314996 258.983941,272.665622 257.471965,271.487917 256.401074,269.905153 255.857083,267.862859 256.027624,265.772513 256.910437,263.855476 258.396475,262.354160 260.302887,261.432735 262.415192,261.221844 264.466873,261.729834 266.234599,262.910151 267.485515,264.605446 268.093668,266.626257 268.010297,268.529315 267.341963,270.315710 266.154412,271.809004 264.555563,272.877468 262.706613,273.389917"/>
    <poly id="446303548" type="building" color="255,230,230" fill="1" layer="-1.00" shape="117.048536,322.921598 121.390565,347.550667 137.693147,344.717230 133.351136,320.088156 117.048536,322.921598"/>
    <poly id="446303549" type="building" color="255,230,230" fill="1" layer="-1.00" shape="124.659488,366.634172 121.390565,347.550667 137.693147,344.717230 142.379001,344.001262 145.637249,363.084663 124.659488,366.634172"/>
    <poly id="446303550" type="building" color="255,230,230" fill="1" layer="-1.00" shape="125.630114,369.688115 136.805412,368.008916 140.890393,386.491944 151.718742,386.436392 151.645447,393.619580 130.468397,393.724513 125.630114,369.688115"/>
    <poly id="462722023" type="man_made" color="255,230,230" fill="1" layer="-1.00" shape="33.180260,344.414942 33.653906,334.546019 30.661213,334.349462 -55.616738,330.879608 -73.471857,330.243771 -76.688668,330.078153 -76.765639,332.401905 -77.090775,341.298246 -73.872500,341.319980 -56.017503,341.966886 33.180260,344.414942"/>
    <poly id="481039769" type="residential" color="235,235,227" fill="1" layer="-3.00" shape="-75.092074,-20.036105 -66.004421,-14.497439 -58.831728,0.120615 -48.741882,20.258739 -37.315235,43.078177 -21.991294,78.766583 1.109131,132.554987 31.762827,194.965895 26.377081,201.607861 20.620196,198.660092 12.931450,200.175665 7.416788,203.783352 5.084218,208.873552 4.650263,213.806003 8.114862,217.892664 3.372356,222.072755 0.939578,229.674649 -29.129849,235.400821 -27.913047,241.490230 -60.995620,247.982712 -51.889305,294.544134 -16.917380,287.749929 -15.918209,292.187806 -9.902860,290.688374 -1.869555,298.230938 18.599379,315.320220 31.743873,314.922935 30.661213,334.349462 -55.616738,330.879608 -73.471857,330.243771 -76.688668,330.078153 -77.090775,341.298246 -73.872500,341.319980 -56.017503,341.966886 33.180260,344.414942 32.648187,355.832961 29.286246,385.574906 19.170559,417.118677 9.391952,441.736550 -0.183408,463.146422 -12.069106,479.108816 -37.868974,508.256701 -67.589817,528.963096 -87.075272,541.914706 -113.377853,550.347023 -153.868168,551.760804 -178.217024,547.306397 -204.092578,542.072690 -228.494336,536.533022 -250.906464,531.312517 -258.492796,529.065683 -291.025584,527.671717 -317.316022,523.408021 -359.653937,314.776282 -390.547799,313.576301 -391.877140,435.811051 -549.132385,433.480508 -553.576325,675.507529 -826.817089,672.785296 -893.889785,468.918282 -943.532370,484.818757 -873.516882,678.089044 -978.000268,678.256784 -1177.045623,441.150375 -1190.254606,454.232999 -850.353548,852.741355 -733.297444,851.694846 -692.320598,870.486241 -561.763329,981.653589 -548.109745,973.069965 -540.391137,953.921294 -456.044824,954.248286 -354.834531,961.444207 -301.354703,1062.608026 -261.539843,1195.379344 -259.520188,1219.940383 -255.793521,1265.229329 -247.103315,1309.716528 -231.786187,1317.753903 -211.386487,1351.999669 -178.276460,1380.275882 -144.788771,1414.356285 -130.406937,1457.672921 -139.311653,1518.916734 -152.568038,1534.544155 -183.958981,1536.282997 -241.480827,1497.319674 -307.107015,1506.967466 -343.307587,1543.569862 -362.673606,1544.900144 -377.603060,1556.359687 -534.178822,1657.709126 -602.220678,1696.423042 -634.527528,1726.423944 -639.475796,1757.157050 -616.070797,1790.348204 -691.457148,1841.905366 -725.180155,1792.193745 -753.419362,1774.328687 -875.113545,1846.380664 -871.481761,1858.117707 -908.088032,1877.127835 -962.042589,1817.436985 -975.370105,1799.236692 -987.508014,1807.647734 -991.322849,1821.268352 -939.597105,1881.124649 -902.483695,1913.923416 -804.660764,1965.581452 -765.909864,2028.040463 -819.096193,2082.579957 -887.207419,2152.420438 -764.410950,2099.651272 -735.315806,2130.752771 -742.094747,2171.761618 -636.207652,2155.460260 -578.305741,2088.903750 -425.308731,2058.205931 -444.613259,1956.238927 -352.030579,1852.732856 -247.964440,1843.831057 -128.881128,1969.518782 113.079846,2123.360093 167.598064,2210.976610 310.342091,2399.439445 482.124945,2445.927233 473.277733,2314.931419 421.331433,2157.282781 568.290268,2103.473009 685.856407,2197.747045 822.741428,2280.585986 861.596740,2164.944660 846.044004,2028.156912 780.411038,1808.600298 873.372817,1749.933365 911.055694,1627.118186 903.114630,1542.013533 971.413049,1495.281482 991.190948,1438.200555 890.798586,1257.727451 954.447077,1147.974382 1011.118151,1004.720642 1001.422628,1120.959620 1031.867100,1249.077818 1151.285765,1410.364520 1422.944553,1574.787116 1456.953634,1554.746742 1493.745192,1533.572722 1533.923125,1311.447600 1943.429016,1167.185863 2118.617251,1052.562245 2259.602118,1025.433890 2322.052424,998.581355 2337.150982,961.621388 2314.485939,942.757929 2088.988359,855.144812 2081.668026,791.907619 1991.900965,733.046368 2199.158760,590.670100 2335.876845,633.489612 2543.274605,753.661675 2729.824061,509.647559 2556.411484,294.406327 2487.945476,202.676467 2138.734971,147.439106 1917.642761,90.658242 2434.610043,-106.919608 2777.139335,-192.793081 2603.077538,-338.480574 2571.266610,-359.397772 2567.850613,-359.897920 2475.363810,-373.492885 2466.758238,-374.068658 2341.720999,-382.353189 2370.724015,-455.056848 2336.159365,-539.761579 2153.518871,-569.094395 1995.257309,-597.842744 1857.259536,-642.476383 1704.554997,-754.716582 1559.111982,-794.753275 1357.308604,-672.592780 1399.723917,-878.046862 1256.401684,-942.102043 1163.921690,-995.119560 1135.577655,-1055.051207 1187.154936,-1088.627362 1238.179466,-1120.249808 1287.794408,-1138.072115 1342.756770,-1183.667713 1366.942734,-1229.667295 1482.689955,-1197.408777 1510.281702,-1161.869979 1548.886323,-1081.974087 1552.706023,-1074.064609 1552.914846,-1073.641833 1615.150009,-1052.082082 1677.737764,-1044.111637 1735.902574,-1058.989237 1779.255191,-1066.845928 1874.080771,-1013.989634 1896.844854,-950.582965 1987.390371,-924.148293 2036.513191,-911.699261 2086.395697,-909.902076 2125.311062,-941.248569 2141.316424,-972.022708 2130.556618,-1005.640354 2100.213347,-1025.357124 2072.792111,-1043.173066 2016.885844,-1042.740776 1761.744852,-1207.019557 1669.182626,-1303.963191 1566.897483,-1367.499267 1541.119459,-1401.159860 1546.944602,-1449.506183 1589.694129,-1537.710594 1696.055933,-1671.863861 1856.241083,-1694.671059 1920.804199,-1686.856937 2082.600420,-1667.272467 2332.852933,-1771.085064 2617.308653,-1889.087606 2353.911029,-2340.253698 2043.823574,-2461.386720 1895.459104,-2418.423357 1833.855259,-2419.852949 1660.322046,-2441.924002 1617.247164,-2497.778791 1487.258212,-2578.434195 1188.259026,-2570.372191 1163.344368,-2568.845046 1109.193217,-2569.465611 1064.444432,-2554.581435 853.095130,-2654.074419 792.347638,-2674.675128 602.392274,-2498.865147 427.711516,-2270.573759 300.548455,-2181.158362 130.252568,-2104.402228 -54.348476,-2003.283285 -99.699247,-1968.821594 -142.324933,-1882.683226 -212.700404,-1546.596961 -227.655931,-1475.164654 -231.453821,-1457.005542 -697.872234,-806.650600 -739.940305,-705.728506 -755.897876,-656.112496 -685.833360,-618.396659 -717.383401,-559.319944 -799.375502,-591.611144 -804.183386,-580.989280 -709.318070,-538.084833 -644.901622,-649.417293 -631.209412,-644.927991 -614.350525,-635.325749 -535.555922,-590.436381 -545.796206,-569.641857 -399.015912,-451.480021 -389.858937,-406.634113 -400.704431,-390.262414 -409.981701,-380.328100 -417.783737,-377.119914 -425.548207,-376.556882 -446.153697,-375.083950 -476.127263,-373.606647 -491.898028,-372.804002 -494.348497,-371.832693 -494.726272,-369.268482 -489.585780,-366.471051 -397.239687,-370.457585 -388.074669,-372.500700 -378.424855,-374.007558 -344.936294,-392.041684 -315.903128,-367.084056 -292.904795,-328.262749 -289.557819,-306.322730 -288.036398,-286.172364 -289.318593,-272.238220 -294.130857,-248.643386 -285.985915,-239.472662 -281.599412,-221.241308 -269.632797,-228.391957 -260.582077,-219.212000 -255.038458,-224.612681 -244.247467,-206.316110 -232.308568,-210.743996 -229.736542,-194.346450 -215.169956,-187.844399 -214.327664,-180.552282 -220.769141,-176.987175 -207.108479,-170.483272 -194.299463,-170.352829 -189.672288,-175.762825 -160.409750,-175.464789 -148.628344,-164.430541 -143.316171,-147.108456 -137.930044,-137.047019 -123.542079,-120.340900 -165.374438,-86.695997 -172.655556,-84.401349 -181.992572,-84.297204 -196.913310,-86.364141 -208.314055,-86.635217 -216.500682,-85.423489 -218.222804,-88.994243 -261.630384,-103.682302 -275.640192,-66.466365 -270.731601,-64.977394 -267.218620,-74.007308 -240.262844,-71.164795 -196.263656,-69.576601 -169.601593,-70.334481 -138.115464,-76.998421 -122.572607,-81.599839 -114.082405,-79.133458 -101.042228,-54.626179 -83.933279,-27.797169 -75.092074,-20.036105"/>
    <poly id="481330257" type="forest" color="140,196,107" fill="1" layer="-4.00" shape="300.192941,337.664316 306.807901,340.067470 315.397144,336.989370 316.144385,331.650553 311.662080,323.911657 303.657096,322.999726 299.749569,326.811927 299.701879,331.482662 292.939491,330.992985 286.988510,332.448712 287.482932,337.257813 294.495291,341.447169 298.087782,341.351019 300.192941,337.664316"/>
    <poly id="481332474" type="forest" color="140,196,107" fill="1" layer="-4.00" shape="2.639515,286.632085 4.781411,286.653924 8.007596,285.900904 10.581318,286.425261 14.829673,289.944317 18.723438,293.747559 20.289108,293.841008 21.884396,292.075130 24.569795,287.918344 26.532652,284.595453 27.282602,283.164100 27.746010,282.659641 28.675131,282.469870 31.599445,282.056921 34.065769,281.617163 34.925150,280.950704 34.872386,279.854312 33.984489,279.136827 27.981773,279.396623 27.271080,279.068368 26.742173,277.635044 26.442012,275.717007 26.463004,273.658344 26.840552,272.167848 27.675526,270.759502 27.820265,270.152170 27.830309,269.167111 27.303706,268.552934 25.947725,267.753191 23.960431,267.201604 22.713043,266.203723 21.957598,263.993243 22.251363,262.357993 22.625637,261.188471 22.139241,259.766650 21.860214,258.911475 21.520183,257.767877 20.026008,256.933518 15.694910,256.302687 15.033500,255.321851 15.189910,254.615015 15.698313,253.878560 20.132766,253.779877 24.471634,255.739096 26.679615,255.551295 28.348032,253.930062 28.432962,251.872052 25.892351,249.145253 21.693480,247.043562 16.494100,245.861484 7.252497,247.073424 5.750132,248.087544 5.524707,249.291791 6.403272,254.060516 6.571820,258.434580 6.192629,261.131605 5.592254,263.571783 6.073911,265.458462 6.892634,265.643918 10.581327,264.474983 12.075163,265.342545 12.609601,266.233533 12.415016,267.548787 11.652218,268.149816 6.852007,269.628426 5.629977,270.324396 5.402747,271.705733 6.947702,274.876215 7.419380,276.696378 6.866256,278.683199 4.497919,279.965220 1.031074,283.416678 1.230431,284.769157 2.639515,286.632085"/>
    <poly id="481422984" type="natural" color="140,196,107" fill="1" layer="-4.00" shape="4.650263,213.806003 5.084218,208.873552 7.416788,203.783352 12.931450,200.175665 20.620196,198.660092 26.377081,201.607861 31.762827,194.965895 1.109131,132.554987 -21.991294,78.766583 -13.399552,126.673216 -1.885911,167.082575 -1.022699,199.491000 4.650263,213.806003"/>
    <poly id="482792866" type="building" color="255,230,230" fill="1" layer="-1.00" shape="162.633940,395.624546 190.454370,397.225692 189.844180,392.271514 207.786248,387.517749 193.132825,330.051669 186.662580,314.510842 137.204539,321.577541 139.413308,332.802143 158.006041,329.040132 162.180624,342.919276 163.458396,347.205040 154.129772,351.725725 156.958891,366.908379 143.011672,369.732624 143.284984,375.325378 163.843504,374.217912 162.633940,395.624546"/>
    <poly id="482793603" type="building" color="255,230,230" fill="1" layer="-1.00" shape="211.001892,364.825416 198.957530,310.684596 227.169573,307.341823 238.626585,353.241155 230.940084,359.759963 211.001892,364.825416"/>
    <poly id="482793604" type="building" color="255,230,230" fill="1" layer="-1.00" shape="212.880162,372.925133 221.251858,399.510347 254.379052,401.165746 250.525317,389.271244 246.307679,380.660594 242.740551,373.052818 239.840882,364.787701 212.880162,372.925133"/>
    <poly id="482829976" type="building" color="255,230,230" fill="1" layer="-1.00" shape="302.704140,404.847081 283.128642,340.987969 308.874200,337.055595 311.557236,342.529061 312.119642,350.072962 314.331560,359.936109 317.035953,363.317707 325.054363,403.614170 302.704140,404.847081"/>
    <poly id="482829977" type="building" color="255,230,230" fill="1" layer="-1.00" shape="277.875423,401.449903 260.823393,400.445619 248.836554,356.345142 256.016748,355.577177 254.186272,349.060845 247.436616,349.412574 236.099698,304.278239 249.618322,300.641619 254.854694,303.418106 256.527676,305.527271 271.971027,360.765490 264.978342,365.088591 266.133171,375.151255 273.698893,377.331652 277.875423,401.449903"/>
    <poly id="482830712" type="building" color="255,230,230" fill="1" layer="-1.00" shape="399.191382,407.293676 354.972672,404.329281 353.271817,405.994436 347.368305,405.934141 332.023572,402.633762 319.443123,334.230165 384.876809,322.965782 392.406913,369.323246 378.470557,373.165820 352.567625,371.639358 352.948965,374.997236 358.639361,375.055354 359.869011,378.831458 376.064190,381.299280 377.159738,377.336608 394.071284,372.273600 395.505430,375.852549 399.191382,407.293676"/>
    <poly id="482837203" type="building" color="255,230,230" fill="1" layer="-1.00" shape="226.782798,285.719646 251.420798,280.668965 247.079524,264.330725 235.260195,258.099861 231.311298,242.994317 232.210906,235.255030 228.999389,228.303975 214.222122,230.997952 226.782798,285.719646"/>
    <poly id="482837204" type="building" color="255,230,230" fill="1" layer="-1.00" shape="246.066115,243.543413 251.302719,252.562952 362.588988,232.512677 359.452453,218.223451 304.000434,229.877661 246.066115,243.543413"/>
    <poly id="482837205" type="building" color="255,230,230" fill="1" layer="-1.00" shape="232.539302,203.080097 239.663990,227.593702 243.695922,234.564202 347.238325,209.951749 319.299983,177.078599 260.108593,192.768236 234.213691,199.831761 232.539302,203.080097"/>
    <poly id="482840747" type="building" color="255,230,230" fill="1" layer="-1.00" shape="289.166083,132.726416 305.331978,145.388634 307.484062,144.414374 308.967037,139.038793 308.358948,128.660701 299.618934,130.840666 289.166083,132.726416"/>
    <poly id="482840924" type="building" color="255,230,230" fill="1" layer="-1.00" shape="219.855467,145.800157 226.048134,180.189072 227.974246,190.912686 258.080907,181.556533 254.901698,171.440002 260.051615,171.204769 257.980166,163.235909 257.458879,158.968929 266.718805,161.188746 273.540886,165.232244 276.526417,180.748594 283.978955,179.407811 282.042241,172.857185 309.975181,166.600438 303.203844,157.587354 290.463520,145.524638 278.286984,134.607820 270.045762,129.686434 267.769120,128.246332 260.905487,129.316402 246.580604,132.579513 236.830211,135.601522 236.929657,139.432494 219.855467,145.800157"/>
    <poly id="483085154" type="building" color="255,230,230" fill="1" layer="-1.00" shape="174.587979,207.967969 169.613993,193.051231 193.876053,185.162911 198.322673,200.583461 174.587979,207.967969"/>
    <poly id="483085155" type="building" color="255,230,230" fill="1" layer="-1.00" shape="212.754795,223.356270 218.270247,221.763243 216.663675,216.278641 211.268038,217.618300 212.754795,223.356270"/>
    <poly id="483085156" type="building" color="255,230,230" fill="1" layer="-1.00" shape="219.678227,221.644782 218.071655,216.160180 223.585867,214.688903 225.067161,219.917634 219.678227,221.644782"/>
    <poly id="483085157" type="building" color="255,230,230" fill="1" layer="-1.00" shape="205.098727,195.560760 219.345086,191.632671 217.896206,183.227400 215.077757,183.707821 213.233502,176.449717 207.579507,178.041333 209.297131,185.176382 203.009224,187.270715 205.098727,195.560760"/>
    <poly id="483085158" type="building" color="255,230,230" fill="1" layer="-1.00" shape="195.409884,167.489920 192.819150,158.187462 198.719598,156.465525 201.181099,165.899497 195.409884,167.489920"/>
    <poly id="483085159" type="building" color="255,230,230" fill="1" layer="-1.00" shape="202.952472,155.235758 205.417812,164.293416 210.034311,163.067565 207.952599,154.013822 202.952472,155.235758"/>
    <poly id="483085934" type="water" color="181,209,209" fill="1" layer="-4.00" shape="202.943724,172.802551 202.403868,172.442826 202.025438,171.929779 201.829181,171.318968 201.835845,170.665951 202.055070,170.070450 202.454548,169.565341 203.012288,169.216817 203.653358,169.057321 204.302713,169.130363 204.907410,169.402195 205.382424,169.849813 205.674813,170.439466 205.764168,171.082394 205.640398,171.723147 205.304180,172.295316 204.809700,172.710901 204.210464,172.948309 203.559980,172.985948 202.943724,172.802551"/>
    <poly id="483086458" type="building" color="255,230,230" fill="1" layer="-1.00" shape="162.481283,163.047239 178.726998,157.445926 163.622728,113.845061 147.259315,119.489465 162.481283,163.047239"/>
    <poly id="483086459" type="building" color="255,230,230" fill="1" layer="-1.00" shape="157.269723,305.111996 168.889490,301.655198 166.295147,289.574325 153.680169,293.430533 157.269723,305.111996"/>
    <poly id="483086460" type="building" color="255,230,230" fill="1" layer="-1.00" shape="152.118965,288.721247 150.610701,284.045710 148.692584,284.026139 136.910522,249.071045 151.192934,243.693213 165.828154,288.340875 161.134268,289.842673 158.908581,286.543469 152.118965,288.721247"/>
    <poly id="483086461" type="building" color="255,230,230" fill="1" layer="-1.00" shape="116.829639,311.994030 121.493706,313.414197 134.974752,309.279008 147.611255,305.400872 149.022873,302.836142 131.326858,251.084027 121.930115,253.921511 130.018817,277.968924 123.577201,279.463970 120.233620,267.696471 109.085768,270.859242 116.829639,311.994030"/>
    <poly id="483086462" type="building" color="255,230,230" fill="1" layer="-1.00" shape="176.990907,298.339611 157.798883,240.716574 166.506483,237.528927 175.415946,265.735701 177.230226,271.753742 178.993031,277.594149 184.487222,295.836975 176.990907,298.339611"/>
    <poly id="483087502" type="building" color="255,230,230" fill="1" layer="-1.00" shape="93.309566,316.115379 93.877931,317.859046 106.907230,314.128793 103.941044,299.841362 97.153880,300.735151 98.636142,306.915834 94.535809,307.693131 95.647249,313.659716 92.262576,314.278275 93.309566,316.115379"/>
    <poly id="483087503" type="building" color="255,230,230" fill="1" layer="-1.00" shape="105.867186,244.747295 124.936001,238.200655 109.672989,194.487520 101.933639,173.797664 104.273344,173.234860 101.438808,165.889185 95.988421,167.372215 95.628389,165.055073 99.912459,162.984546 90.476705,137.251964 85.814763,138.754108 90.323403,152.282417 86.413860,156.293881 90.293885,175.029387 98.380634,218.082630 105.867186,244.747295"/>
    <poly id="483087504" type="building" color="255,230,230" fill="1" layer="-1.00" shape="133.872994,236.553959 147.881779,231.881763 144.103184,222.013730 129.703952,226.305592 133.872994,236.553959"/>
    <poly id="483087505" type="building" color="255,230,230" fill="1" layer="-1.00" shape="128.382112,223.203790 142.979031,218.338344 140.166196,208.867589 131.409261,211.667322 125.569273,213.733038 128.382112,223.203790"/>
    <poly id="483087506" type="building" color="255,230,230" fill="1" layer="-1.00" shape="123.491092,208.509297 131.665885,205.316199 135.762091,202.856341 112.253136,131.695941 97.876364,134.825791 107.270068,163.635195 116.126510,189.738234 123.491092,208.509297"/>
    <poly id="483087509" type="building" color="255,230,230" fill="1" layer="-1.00" shape="37.931435,137.679124 42.068104,150.063495 53.757800,144.980162 59.418917,140.599132 54.698803,128.994722 37.931435,137.679124"/>
    <poly id="483087510" type="building" color="255,230,230" fill="1" layer="-1.00" shape="62.001455,135.035508 57.229487,127.470837 54.514053,127.254969 52.431894,122.418622 41.957604,123.274836 41.211183,120.178910 50.234668,110.054026 48.512543,107.534819 30.399602,115.441731 8.302460,58.375958 33.444531,45.714509 51.489259,82.128086 71.549252,129.930340 66.495060,131.229242 62.001455,135.035508"/>
    <poly id="483088237" type="building" color="255,230,230" fill="1" layer="-1.00" shape="56.451351,203.774171 59.088100,211.704491 86.092710,206.589194 81.311719,181.103336 65.355694,186.519496 54.275588,189.306637 54.986674,195.866873 75.203382,190.671268 77.762643,205.153786 63.192196,208.469854 61.503494,202.674494 56.451351,203.774171"/>
    <poly id="483088238" type="building" color="255,230,230" fill="1" layer="-1.00" shape="54.105447,187.179610 43.160904,156.815799 74.326688,142.876458 80.555486,178.970331 54.105447,187.179610"/>
    <poly id="483088292" type="leisure" color="207,245,201" fill="1" layer="-2.00" shape="158.871325,229.614002 167.041375,226.885778 151.295956,180.322888 143.125892,183.051120 158.871325,229.614002"/>
    <poly id="483088376" type="building" color="255,230,230" fill="1" layer="-1.00" shape="154.456818,206.865957 155.285603,209.198953 157.553084,208.402964 156.724299,206.069969 154.456818,206.865957"/>
    <poly id="483088538" type="leisure" color="207,245,201" fill="1" layer="-2.00" shape="209.687751,217.912111 206.401888,205.713483 219.742685,201.754014 222.913695,213.719019 209.687751,217.912111"/>
    <poly id="483088648" type="forest" color="140,196,107" fill="1" layer="-4.00" shape="161.346802,190.675547 166.966304,191.419176 176.324409,188.193891 173.373205,179.751158 159.234471,184.621261 161.346802,190.675547"/>
    <poly id="483088975" type="building" color="255,230,230" fill="1" layer="-1.00" shape="137.960571,172.261266 151.713310,167.619663 136.883237,124.298351 123.119706,128.950925 137.960571,172.261266"/>
    <poly id="483741683" type="building" color="255,230,230" fill="1" layer="-1.00" shape="226.048134,180.189072 247.159444,174.017593 236.929657,139.432494 219.855467,145.800157 226.048134,180.189072"/>
    <poly id="483742524" type="tourism" color="207,245,201" fill="1" layer="-2.00" shape="296.353771,320.168914 280.721489,313.710910 274.200364,307.334865 270.942962,290.266042 270.692470,281.397020 273.504111,274.274992 280.446718,266.508844 289.038618,264.216674 291.307673,276.836641 292.055654,283.950734 296.353771,320.168914"/>
    <poly id="485276021" type="natural" color="140,196,107" fill="0" layer="-4.00" shape="52.426997,228.450720 45.682602,200.066853 35.286557,168.170017 12.263786,99.461034"/>
    <poly id="485279157" type="natural" color="140,196,107" fill="0" layer="-4.00" shape="25.420017,462.676944 38.960786,424.460153 49.401491,381.950094 53.375377,356.996299 54.186461,332.851508"/>