<?xml version="1.0" encoding="UTF-8"?>

<!-- generated on 2021-12-16 23:59:36 by Eclipse SUMO netconvert Version 1.11.0
<configuration xmlns:xsi="http://www.w3.org/2001/XMLSchema-instance" xsi:noNamespaceSchemaLocation="http://sumo.dlr.de/xsd/netconvertConfiguration.xsd">

    <input>
        <osm-files value="Mindelo.osm"/>
    </input>

    <output>
        <output-file value="Mindelo.net.xml"/>
    </output>

    <projection>
        <proj.utm value="true"/>
    </projection>

    <report>
        <aggregate-warnings value="5"/>
    </report>

</configuration>
-->

<net version="1.9" junctionCornerDetail="5" limitTurnSpeed="5.50" xmlns:xsi="http://www.w3.org/2001/XMLSchema-instance" xsi:noNamespaceSchemaLocation="http://sumo.dlr.de/xsd/net_file.xsd">

    <location netOffset="-714145.84,-1867803.65" convBoundary="0.00,0.00,644.17,696.63" origBoundary="-24.989742,16.883894,-24.983683,16.890184" projParameter="+proj=utm +zone=26 +ellps=WGS84 +datum=WGS84 +units=m +no_defs"/>

    <type id="highway.bridleway" priority="1" numLanes="1" speed="2.78" allow="pedestrian" oneway="1" width="2.00"/>
    <type id="highway.bus_guideway" priority="1" numLanes="1" speed="27.78" allow="bus" oneway="1"/>
    <type id="highway.cycleway" priority="1" numLanes="1" speed="8.33" allow="bicycle" oneway="0" width="1.00"/>
    <type id="highway.footway" priority="1" numLanes="1" speed="2.78" allow="pedestrian" oneway="1" width="2.00"/>
    <type id="highway.ford" priority="1" numLanes="1" speed="2.78" allow="army" oneway="0"/>
    <type id="highway.living_street" priority="2" numLanes="1" speed="2.78" disallow="tram rail_urban rail rail_electric rail_fast ship" oneway="0"/>
    <type id="highway.motorway" priority="14" numLanes="2" speed="39.44" allow="private emergency authority army vip passenger hov taxi bus coach delivery truck trailer motorcycle evehicle custom1 custom2" oneway="1"/>
    <type id="highway.motorway_link" priority="9" numLanes="1" speed="22.22" allow="private emergency authority army vip passenger hov taxi bus coach delivery truck trailer motorcycle evehicle custom1 custom2" oneway="1"/>
    <type id="highway.path" priority="1" numLanes="1" speed="2.78" allow="pedestrian bicycle" oneway="0" width="2.00"/>
    <type id="highway.pedestrian" priority="1" numLanes="1" speed="2.78" allow="pedestrian" oneway="1" width="2.00"/>
    <type id="highway.primary" priority="12" numLanes="2" speed="27.78" disallow="tram rail_urban rail rail_electric rail_fast ship" oneway="0"/>
    <type id="highway.primary_link" priority="7" numLanes="1" speed="22.22" disallow="tram rail_urban rail rail_electric rail_fast ship" oneway="0"/>
    <type id="highway.raceway" priority="15" numLanes="2" speed="83.33" allow="vip" oneway="0"/>
    <type id="highway.residential" priority="3" numLanes="1" speed="13.89" disallow="tram rail_urban rail rail_electric rail_fast ship" oneway="0"/>
    <type id="highway.secondary" priority="11" numLanes="1" speed="27.78" disallow="tram rail_urban rail rail_electric rail_fast ship" oneway="0"/>
    <type id="highway.secondary_link" priority="6" numLanes="1" speed="22.22" disallow="tram rail_urban rail rail_electric rail_fast ship" oneway="0"/>
    <type id="highway.service" priority="1" numLanes="1" speed="5.56" allow="pedestrian delivery bicycle" oneway="0"/>
    <type id="highway.stairs" priority="1" numLanes="1" speed="1.39" allow="pedestrian" oneway="1" width="2.00"/>
    <type id="highway.step" priority="1" numLanes="1" speed="1.39" allow="pedestrian" oneway="1" width="2.00"/>
    <type id="highway.steps" priority="1" numLanes="1" speed="1.39" allow="pedestrian" oneway="1" width="2.00"/>
    <type id="highway.tertiary" priority="10" numLanes="1" speed="22.22" disallow="tram rail_urban rail rail_electric rail_fast ship" oneway="0"/>
    <type id="highway.tertiary_link" priority="5" numLanes="1" speed="22.22" disallow="tram rail_urban rail rail_electric rail_fast ship" oneway="0"/>
    <type id="highway.track" priority="1" numLanes="1" speed="5.56" allow="pedestrian motorcycle moped bicycle" oneway="0"/>
    <type id="highway.trunk" priority="13" numLanes="2" speed="27.78" disallow="pedestrian bicycle tram rail_urban rail rail_electric rail_fast ship" oneway="0"/>
    <type id="highway.trunk_link" priority="8" numLanes="1" speed="22.22" disallow="pedestrian bicycle tram rail_urban rail rail_electric rail_fast ship" oneway="0"/>
    <type id="highway.unclassified" priority="4" numLanes="1" speed="13.89" disallow="tram rail_urban rail rail_electric rail_fast ship" oneway="0"/>
    <type id="highway.unsurfaced" priority="1" numLanes="1" speed="8.33" disallow="tram rail_urban rail rail_electric rail_fast ship" oneway="0"/>
    <type id="railway.highspeed" priority="21" numLanes="1" speed="69.44" allow="rail_fast" oneway="1"/>
    <type id="railway.light_rail" priority="19" numLanes="1" speed="27.78" allow="rail_urban" oneway="1"/>
    <type id="railway.preserved" priority="16" numLanes="1" speed="27.78" allow="rail" oneway="1"/>
    <type id="railway.rail" priority="20" numLanes="1" speed="44.44" allow="rail" oneway="1"/>
    <type id="railway.subway" priority="18" numLanes="1" speed="27.78" allow="rail_urban" oneway="1"/>
    <type id="railway.tram" priority="17" numLanes="1" speed="13.89" allow="tram" oneway="1"/>

    <edge id=":1972673325_0" function="internal">
        <lane id=":1972673325_0_0" index="0" disallow="tram rail_urban rail rail_electric rail_fast ship" speed="6.49" length="9.03" shape="202.12,210.48 201.12,208.21 199.63,206.82 197.66,206.29 195.21,206.63"/>
    </edge>
    <edge id=":1972673325_1" function="internal">
        <lane id=":1972673325_1_0" index="0" disallow="tram rail_urban rail rail_electric rail_fast ship" speed="13.89" length="14.40" shape="202.12,210.48 198.22,196.62"/>
    </edge>
    <edge id=":1972673325_2" function="internal">
        <lane id=":1972673325_2_0" index="0" disallow="tram rail_urban rail rail_electric rail_fast ship" speed="3.65" length="4.67" shape="202.12,210.48 202.56,209.11 203.22,208.50 204.10,208.67 205.20,209.61"/>
    </edge>
    <edge id=":1972673325_3" function="internal">
        <lane id=":1972673325_3_0" index="0" disallow="tram rail_urban rail rail_electric rail_fast ship" speed="13.89" length="14.39" shape="201.30,195.75 205.20,209.61"/>
    </edge>
    <edge id=":1972673325_4" function="internal">
        <lane id=":1972673325_4_0" index="0" disallow="tram rail_urban rail rail_electric rail_fast ship" speed="8.02" length="14.20" shape="201.30,195.75 201.81,199.60 200.96,202.69 198.76,205.04 195.21,206.63"/>
    </edge>
    <edge id=":1972673325_5" function="internal">
        <lane id=":1972673325_5_0" index="0" disallow="tram rail_urban rail rail_electric rail_fast ship" speed="3.65" length="4.67" shape="201.30,195.75 200.85,197.12 200.19,197.73 199.31,197.56 198.22,196.62"/>
    </edge>
    <edge id=":1972673325_6" function="internal">
        <lane id=":1972673325_6_0" index="0" disallow="tram rail_urban rail rail_electric rail_fast ship" speed="6.53" length="9.06" shape="194.32,203.56 196.59,202.54 198.00,201.04 198.54,199.07 198.22,196.62"/>
    </edge>
    <edge id=":1972673325_7" function="internal">
        <lane id=":1972673325_7_0" index="0" disallow="tram rail_urban rail rail_electric rail_fast ship" speed="7.99" length="14.21" shape="194.32,203.56 198.18,203.02 201.28,203.85 203.62,206.05 205.20,209.61"/>
    </edge>
    <edge id=":1972673325_8" function="internal">
        <lane id=":1972673325_8_0" index="0" disallow="tram rail_urban rail rail_electric rail_fast ship" speed="3.65" length="4.67" shape="194.32,203.56 195.70,203.99 196.30,204.65 196.14,205.53 195.21,206.63"/>
    </edge>
    <edge id=":2054998823_0" function="internal">
        <lane id=":2054998823_0_0" index="0" disallow="tram rail_urban rail rail_electric rail_fast ship" speed="13.89" length="14.41" shape="167.62,220.60 163.09,206.92"/>
    </edge>
    <edge id=":2054998823_1" function="internal">
        <lane id=":2054998823_1_0" index="0" disallow="tram rail_urban rail rail_electric rail_fast ship" speed="7.93" length="14.34" shape="167.62,220.60 166.92,216.71 167.66,213.58 169.83,211.20 173.43,209.58"/>
    </edge>
    <edge id=":2054998823_2" function="internal">
        <lane id=":2054998823_2_0" index="0" disallow="tram rail_urban rail rail_electric rail_fast ship" speed="3.65" length="4.67" shape="167.62,220.60 168.00,219.21 168.63,218.58 169.52,218.71 170.66,219.60"/>
    </edge>
    <edge id=":2054998823_3" function="internal">
        <lane id=":2054998823_3_0" index="0" disallow="tram rail_urban rail rail_electric rail_fast ship" speed="6.42" length="9.04" shape="174.32,212.65 172.05,213.68 170.68,215.17 170.22,217.15 170.66,219.60"/>
    </edge>
    <edge id=":2054998823_4" function="internal">
        <lane id=":2054998823_4_0" index="0" disallow="tram rail_urban rail rail_electric rail_fast ship" speed="8.13" length="14.25" shape="174.32,212.65 170.42,213.22 167.25,212.45 164.81,210.35 163.09,206.92"/>
    </edge>
    <edge id=":2054998823_5" function="internal">
        <lane id=":2054998823_5_0" index="0" disallow="tram rail_urban rail rail_electric rail_fast ship" speed="3.65" length="4.67" shape="174.32,212.65 172.94,212.22 172.34,211.56 172.50,210.68 173.43,209.58"/>
    </edge>
    <edge id=":2054998823_6" function="internal">
        <lane id=":2054998823_6_0" index="0" disallow="tram rail_urban rail rail_electric rail_fast ship" speed="6.66" length="9.23" shape="166.13,205.92 167.24,208.12 168.83,209.47 170.89,209.95 173.43,209.58"/>
    </edge>
    <edge id=":2054998823_7" function="internal">
        <lane id=":2054998823_7_0" index="0" disallow="tram rail_urban rail rail_electric rail_fast ship" speed="13.89" length="14.41" shape="166.13,205.92 170.66,219.60"/>
    </edge>
    <edge id=":2054998823_8" function="internal">
        <lane id=":2054998823_8_0" index="0" disallow="tram rail_urban rail rail_electric rail_fast ship" speed="3.65" length="4.67" shape="166.13,205.92 165.75,207.31 165.12,207.94 164.23,207.81 163.09,206.92"/>
    </edge>
    <edge id=":2054998829_0" function="internal">
        <lane id=":2054998829_0_0" index="0" disallow="tram rail_urban rail rail_electric rail_fast ship" speed="13.89" length="9.35" shape="93.96,217.12 95.82,226.28"/>
    </edge>
    <edge id=":2054998829_1" function="internal">
        <lane id=":2054998829_1_0" index="0" disallow="tram rail_urban rail rail_electric rail_fast ship" speed="6.03" length="7.91" shape="93.96,217.12 94.25,219.90 93.99,221.94 93.16,223.25 91.77,223.83"/>
    </edge>
    <edge id=":2054998829_2" function="internal">
        <lane id=":2054998829_2_0" index="0" disallow="tram rail_urban rail rail_electric rail_fast ship" speed="6.32" length="1.16" shape="91.37,220.65 92.52,220.82"/>
    </edge>
    <edge id=":2054998829_3" function="internal">
        <lane id=":2054998829_3_0" index="0" disallow="tram rail_urban rail rail_electric rail_fast ship" speed="3.65" length="1.23" shape="91.37,220.65 92.47,221.20"/>
    </edge>
    <edge id=":2054998829_4" function="internal">
        <lane id=":2054998829_4_0" index="0" disallow="tram rail_urban rail rail_electric rail_fast ship" speed="6.32" length="6.67" shape="92.52,220.82 92.81,220.86 94.03,221.86 95.03,223.67 95.82,226.28"/>
    </edge>
    <edge id=":2054998829_5" function="internal">
        <lane id=":2054998829_5_0" index="0" disallow="tram rail_urban rail rail_electric rail_fast ship" speed="3.65" length="3.44" shape="92.47,221.20 92.66,221.30 93.16,222.04 92.86,222.88 91.77,223.83"/>
    </edge>
    <edge id=":2054998835_0" function="internal">
        <lane id=":2054998835_0_0" index="0" disallow="tram rail_urban rail rail_electric rail_fast ship" speed="6.51" length="8.77" shape="60.38,227.78 58.07,228.41 56.49,229.63 55.63,231.43 55.50,233.81"/>
    </edge>
    <edge id=":2054998835_1" function="internal">
        <lane id=":2054998835_1_0" index="0" disallow="tram rail_urban rail rail_electric rail_fast ship" speed="3.65" length="4.67" shape="60.38,227.78 59.09,227.14 58.59,226.40 58.89,225.55 59.98,224.61"/>
    </edge>
    <edge id=":2054998835_2" function="internal">
        <lane id=":2054998835_2_0" index="0" disallow="tram rail_urban rail rail_electric rail_fast ship" speed="6.55" length="8.79" shape="53.69,220.01 54.43,222.27 55.73,223.79 57.58,224.57 59.98,224.61"/>
    </edge>
    <edge id=":2054998835_3" function="internal">
        <lane id=":2054998835_3_0" index="0" disallow="tram rail_urban rail rail_electric rail_fast ship" speed="27.78" length="13.93" shape="53.69,220.01 54.28,223.54 54.76,226.89 55.16,230.24 55.50,233.81"/>
    </edge>
    <edge id=":2054998975_0" function="internal">
        <lane id=":2054998975_0_0" index="0" disallow="tram rail_urban rail rail_electric rail_fast ship" speed="5.59" length="6.03" shape="63.80,318.03 62.10,316.51 60.68,315.60 59.55,315.30 58.71,315.60"/>
    </edge>
    <edge id=":2054998975_1" function="internal">
        <lane id=":2054998975_1_0" index="0" disallow="tram rail_urban rail rail_electric rail_fast ship" speed="10.46" length="9.54" shape="62.94,307.15 63.03,309.97 63.33,311.96 64.21,313.70 66.05,315.75"/>
    </edge>
    <edge id=":2054998975_2" function="internal">
        <lane id=":2054998975_2_0" index="0" disallow="tram rail_urban rail rail_electric rail_fast ship" speed="9.52" length="9.77" shape="62.94,307.15 62.74,309.41 61.96,311.57 60.62,313.63 58.71,315.60"/>
    </edge>
    <edge id=":2054998983_0" function="internal">
        <lane id=":2054998983_0_0" index="0" disallow="tram rail_urban rail rail_electric rail_fast ship" speed="25.00" length="8.03" shape="48.96,318.34 48.61,315.98 48.39,314.35 48.02,312.76 47.23,310.52"/>
    </edge>
    <edge id=":2054998983_1" function="internal">
        <lane id=":2054998983_1_0" index="0" disallow="tram rail_urban rail rail_electric rail_fast ship" speed="7.56" length="8.29" shape="52.82,316.07 51.16,315.63 49.68,314.56 48.37,312.86 47.23,310.52"/>
    </edge>
    <edge id=":2055799069_0" function="internal">
        <lane id=":2055799069_0_0" index="0" disallow="tram rail_urban rail rail_electric rail_fast ship" speed="3.65" length="4.67" shape="245.56,126.89 246.95,127.25 247.59,127.87 247.48,128.76 246.61,129.91"/>
    </edge>
    <edge id=":2055799071_0" function="internal">
        <lane id=":2055799071_0_0" index="0" disallow="tram rail_urban rail rail_electric rail_fast ship" speed="8.13" length="4.95" shape="101.32,259.30 101.18,255.52 101.57,254.43"/>
    </edge>
    <edge id=":2055799071_1" function="internal">
        <lane id=":2055799071_1_0" index="0" disallow="tram rail_urban rail rail_electric rail_fast ship" speed="3.65" length="2.20" shape="101.32,259.30 101.89,257.98 102.50,257.53"/>
    </edge>
    <edge id=":2055799071_6" function="internal">
        <lane id=":2055799071_6_0" index="0" disallow="tram rail_urban rail rail_electric rail_fast ship" speed="8.13" length="8.99" shape="101.57,254.43 102.25,252.53 104.54,250.32 108.05,248.89"/>
    </edge>
    <edge id=":2055799071_7" function="internal">
        <lane id=":2055799071_7_0" index="0" disallow="tram rail_urban rail rail_electric rail_fast ship" speed="3.65" length="2.47" shape="102.50,257.53 102.61,257.45 103.47,257.70 104.47,258.74"/>
    </edge>
    <edge id=":2055799071_2" function="internal">
        <lane id=":2055799071_2_0" index="0" disallow="tram rail_urban rail rail_electric rail_fast ship" speed="6.66" length="9.03" shape="108.83,252.00 106.56,252.92 105.07,254.35 104.38,256.29 104.47,258.74"/>
    </edge>
    <edge id=":2055799071_3" function="internal">
        <lane id=":2055799071_3_0" index="0" disallow="tram rail_urban rail rail_electric rail_fast ship" speed="3.65" length="4.67" shape="108.83,252.00 107.47,251.51 106.89,250.83 107.08,249.96 108.05,248.89"/>
    </edge>
    <edge id=":2055799071_4" function="internal">
        <lane id=":2055799071_4_0" index="0" disallow="tram rail_urban rail rail_electric rail_fast ship" speed="6.79" length="10.11" shape="100.07,245.08 101.03,247.38 102.68,248.78 105.02,249.29 108.05,248.89"/>
    </edge>
    <edge id=":2055799071_5" function="internal">
        <lane id=":2055799071_5_0" index="0" disallow="tram rail_urban rail rail_electric rail_fast ship" speed="13.89" length="14.36" shape="100.07,245.08 101.09,248.58 102.35,251.89 103.56,255.22 104.47,258.74"/>
    </edge>
    <edge id=":2055799073_0" function="internal">
        <lane id=":2055799073_0_0" index="0" disallow="tram rail_urban rail rail_electric rail_fast ship" speed="27.78" length="0.10" shape="265.75,257.92 265.82,257.88"/>
    </edge>
    <edge id=":2055799079_0" function="internal">
        <lane id=":2055799079_0_0" index="0" disallow="tram rail_urban rail rail_electric rail_fast ship" speed="8.86" length="8.95" shape="276.65,261.80 275.36,262.59 274.14,264.07 272.99,266.25 271.90,269.10"/>
    </edge>
    <edge id=":2055799079_1" function="internal">
        <lane id=":2055799079_1_0" index="0" disallow="tram rail_urban rail rail_electric rail_fast ship" speed="9.59" length="9.99" shape="265.99,257.98 268.17,259.02 270.49,259.50 272.98,259.41 275.62,258.77"/>
    </edge>
    <edge id=":2055799079_2" function="internal">
        <lane id=":2055799079_2_0" index="0" disallow="tram rail_urban rail rail_electric rail_fast ship" speed="8.65" length="13.64" shape="265.99,257.98 269.33,260.55 271.43,263.26 272.29,266.11 271.90,269.10"/>
    </edge>
    <edge id=":2055799081_0" function="internal">
        <lane id=":2055799081_0_0" index="0" disallow="tram rail_urban rail rail_electric rail_fast ship" speed="6.74" length="9.19" shape="250.05,256.81 251.24,258.28 253.01,258.96 255.36,258.86 258.28,257.98"/>
    </edge>
    <edge id=":2055799081_1" function="internal">
        <lane id=":2055799081_1_0" index="0" disallow="tram rail_urban rail rail_electric rail_fast ship" speed="20.84" length="12.16" shape="252.17,269.95 247.43,258.75"/>
    </edge>
    <edge id=":2055799081_2" function="internal">
        <lane id=":2055799081_2_0" index="0" disallow="tram rail_urban rail rail_electric rail_fast ship" speed="8.16" length="15.51" shape="252.17,269.95 251.13,266.19 251.80,262.94 254.19,260.20 258.28,257.98"/>
    </edge>
    <edge id=":2055799092_0" function="internal">
        <lane id=":2055799092_0_0" index="0" disallow="tram rail_urban rail rail_electric rail_fast ship" speed="12.30" length="11.06" shape="258.63,282.81 258.12,279.71 257.32,277.48 255.95,275.51 253.78,273.23"/>
    </edge>
    <edge id=":2055799092_1" function="internal">
        <lane id=":2055799092_1_0" index="0" disallow="tram rail_urban rail rail_electric rail_fast ship" speed="7.67" length="8.40" shape="266.82,276.00 264.50,277.70 262.88,279.32 261.98,280.85 261.79,282.30"/>
    </edge>
    <edge id=":2055799092_2" function="internal">
        <lane id=":2055799092_2_0" index="0" disallow="tram rail_urban rail rail_electric rail_fast ship" speed="8.81" length="14.54" shape="266.82,276.00 263.69,277.33 260.47,277.31 257.17,275.95 253.78,273.23"/>
    </edge>
    <edge id=":2073173660_0" function="internal">
        <lane id=":2073173660_0_0" index="0" disallow="tram rail_urban rail rail_electric rail_fast ship" speed="13.89" length="5.03" shape="210.88,241.72 209.56,236.87"/>
    </edge>
    <edge id=":2073173660_1" function="internal">
        <lane id=":2073173660_1_0" index="0" disallow="tram rail_urban rail rail_electric rail_fast ship" speed="13.89" length="5.08" shape="212.64,236.00 213.98,240.91"/>
    </edge>
    <edge id=":2073173662_0" function="internal">
        <lane id=":2073173662_0_0" index="0" disallow="tram rail_urban rail rail_electric rail_fast ship" speed="13.89" length="4.52" shape="177.31,250.58 177.02,249.27 176.79,248.38 176.53,247.50 176.11,246.23"/>
    </edge>
    <edge id=":2073173662_1" function="internal">
        <lane id=":2073173662_1_0" index="0" disallow="tram rail_urban rail rail_electric rail_fast ship" speed="13.89" length="4.84" shape="179.15,245.22 179.60,246.59 179.88,247.53 180.12,248.48 180.44,249.88"/>
    </edge>
    <edge id=":3099317767_0" function="internal">
        <lane id=":3099317767_0_0" index="0" disallow="tram rail_urban rail rail_electric rail_fast ship" speed="27.78" length="6.73" shape="47.74,304.79 48.40,302.90 48.75,301.58 48.92,300.22 49.01,298.22"/>
    </edge>
    <edge id=":3099317767_1" function="internal">
        <lane id=":3099317767_1_0" index="0" disallow="tram rail_urban rail rail_electric rail_fast ship" speed="7.72" length="6.67" shape="47.74,304.79 48.43,303.50 49.50,302.40 50.95,301.49 52.78,300.77"/>
    </edge>
    <edge id=":3099317771_0" function="internal">
        <lane id=":3099317771_0_0" index="0" disallow="tram rail_urban rail rail_electric rail_fast ship" speed="8.30" length="7.15" shape="57.02,296.23 57.24,297.93 57.85,299.52 58.85,300.99 60.25,302.35"/>
    </edge>
    <edge id=":3099317771_1" function="internal">
        <lane id=":3099317771_1_0" index="0" disallow="tram rail_urban rail rail_electric rail_fast ship" speed="7.94" length="7.72" shape="53.04,300.69 54.90,300.36 56.72,300.52 58.50,301.19 60.25,302.35"/>
    </edge>
    <edge id=":3099317776_0" function="internal">
        <lane id=":3099317776_0_0" index="0" disallow="tram rail_urban rail rail_electric rail_fast ship" speed="6.13" length="3.61" shape="58.56,315.73 59.19,319.29"/>
    </edge>
    <edge id=":3099317776_1" function="internal">
        <lane id=":3099317776_1_0" index="0" disallow="tram rail_urban rail rail_electric rail_fast ship" speed="6.32" length="3.40" shape="58.56,315.73 58.07,316.02 57.35,316.20 56.42,316.27 55.27,316.24"/>
    </edge>
    <edge id=":339576417_0" function="internal">
        <lane id=":339576417_0_0" index="0" disallow="tram rail_urban rail rail_electric rail_fast ship" speed="4.65" length="7.60" shape="0.41,63.56 0.44,60.91 0.95,59.88 1.94,60.47 3.40,62.68"/>
    </edge>
    <edge id=":339576418_0" function="internal">
        <lane id=":339576418_0_0" index="0" allow="pedestrian delivery bicycle" speed="5.23" length="5.19" shape="39.88,154.72 38.57,155.41 37.76,156.31 37.44,157.42 37.62,158.75"/>
    </edge>
    <edge id=":339576418_1" function="internal">
        <lane id=":339576418_1_0" index="0" allow="pedestrian delivery bicycle" speed="3.65" length="4.67" shape="39.88,154.72 38.48,154.39 37.82,153.78 37.92,152.89 38.77,151.73"/>
    </edge>
    <edge id=":339576418_2" function="internal">
        <lane id=":339576418_2_0" index="0" allow="pedestrian delivery bicycle" speed="5.00" length="5.04" shape="34.81,149.83 35.43,151.07 36.30,151.80 37.41,152.02 38.77,151.73"/>
    </edge>
    <edge id=":339576418_3" function="internal">
        <lane id=":339576418_3_0" index="0" disallow="tram rail_urban rail rail_electric rail_fast ship" speed="27.78" length="9.35" shape="34.81,149.83 37.62,158.75"/>
    </edge>
    <edge id=":359797521_0" function="internal">
        <lane id=":359797521_0_0" index="0" disallow="tram rail_urban rail rail_electric rail_fast ship" speed="3.65" length="4.67" shape="353.98,695.03 354.25,696.45 353.96,697.29 353.10,697.56 351.69,697.27"/>
    </edge>
    <edge id=":359797523_0" function="internal">
        <lane id=":359797523_0_0" index="0" disallow="tram rail_urban rail rail_electric rail_fast ship" speed="3.65" length="4.67" shape="330.12,555.98 329.65,557.34 328.97,557.93 328.10,557.75 327.02,556.79"/>
    </edge>
    <edge id=":359797526_0" function="internal">
        <lane id=":359797526_0_0" index="0" disallow="tram rail_urban rail rail_electric rail_fast ship" speed="13.89" length="15.47" shape="241.06,245.65 239.47,242.17 238.03,238.54 236.77,234.83 235.75,231.15"/>
    </edge>
    <edge id=":359797526_1" function="internal">
        <lane id=":359797526_1_0" index="0" disallow="tram rail_urban rail rail_electric rail_fast ship" speed="7.65" length="6.50" shape="241.06,245.65 239.75,241.56 240.06,239.38"/>
    </edge>
    <edge id=":359797526_2" function="internal">
        <lane id=":359797526_2_0" index="0" disallow="tram rail_urban rail rail_electric rail_fast ship" speed="3.65" length="2.34" shape="241.06,245.65 241.25,244.22 241.80,243.51"/>
    </edge>
    <edge id=":359797526_9" function="internal">
        <lane id=":359797526_9_0" index="0" disallow="tram rail_urban rail rail_electric rail_fast ship" speed="7.65" length="8.63" shape="240.06,239.38 240.21,238.32 242.45,235.93 246.45,234.38"/>
    </edge>
    <edge id=":359797526_10" function="internal">
        <lane id=":359797526_10_0" index="0" disallow="tram rail_urban rail rail_electric rail_fast ship" speed="3.65" length="2.34" shape="241.80,243.51 242.69,243.52 243.94,244.25"/>
    </edge>
    <edge id=":359797526_3" function="internal">
        <lane id=":359797526_3_0" index="0" disallow="tram rail_urban rail rail_electric rail_fast ship" speed="6.07" length="9.07" shape="247.17,237.50 244.77,238.43 243.43,239.86 243.15,241.80 243.94,244.25"/>
    </edge>
    <edge id=":359797526_4" function="internal">
        <lane id=":359797526_4_0" index="0" disallow="tram rail_urban rail rail_electric rail_fast ship" speed="8.21" length="14.85" shape="247.17,237.50 242.94,237.91 239.63,236.99 237.23,234.73 235.75,231.15"/>
    </edge>
    <edge id=":359797526_5" function="internal">
        <lane id=":359797526_5_0" index="0" disallow="tram rail_urban rail rail_electric rail_fast ship" speed="3.65" length="4.67" shape="247.17,237.50 245.82,236.99 245.25,236.30 245.46,235.43 246.45,234.38"/>
    </edge>
    <edge id=":359797526_6" function="internal">
        <lane id=":359797526_6_0" index="0" disallow="tram rail_urban rail rail_electric rail_fast ship" speed="6.76" length="9.74" shape="238.86,230.40 239.83,232.68 241.41,234.11 243.62,234.67 246.45,234.38"/>
    </edge>
    <edge id=":359797526_7" function="internal">
        <lane id=":359797526_7_0" index="0" disallow="tram rail_urban rail rail_electric rail_fast ship" speed="13.89" length="14.78" shape="238.86,230.40 239.84,233.98 241.02,237.46 242.39,240.87 243.94,244.25"/>
    </edge>
    <edge id=":359797526_8" function="internal">
        <lane id=":359797526_8_0" index="0" disallow="tram rail_urban rail rail_electric rail_fast ship" speed="3.65" length="2.34" shape="238.86,230.40 238.36,231.75 237.68,232.33"/>
    </edge>
    <edge id=":359797526_11" function="internal">
        <lane id=":359797526_11_0" index="0" disallow="tram rail_urban rail rail_electric rail_fast ship" speed="3.65" length="2.34" shape="237.68,232.33 236.81,232.13 235.75,231.15"/>
    </edge>
    <edge id=":359797540_0" function="internal">
        <lane id=":359797540_0_0" index="0" allow="pedestrian delivery bicycle" speed="5.36" length="5.44" shape="93.80,139.12 93.10,137.85 92.13,137.08 90.91,136.81 89.42,137.04"/>
    </edge>
    <edge id=":359797540_1" function="internal">
        <lane id=":359797540_1_0" index="0" disallow="tram rail_urban rail rail_electric rail_fast ship" speed="13.89" length="9.62" shape="93.80,139.12 90.54,130.07"/>
    </edge>
    <edge id=":359797540_2" function="internal">
        <lane id=":359797540_2_0" index="0" allow="pedestrian delivery bicycle" speed="6.00" length="7.99" shape="93.80,139.12 93.01,136.42 92.93,134.35 93.55,132.92 94.88,132.12"/>
    </edge>
    <edge id=":359797540_3" function="internal">
        <lane id=":359797540_3_0" index="0" allow="pedestrian delivery bicycle" speed="5.56" length="6.61" shape="95.76,135.19 89.42,137.04"/>
    </edge>
    <edge id=":359797540_4" function="internal">
        <lane id=":359797540_4_0" index="0" allow="pedestrian delivery bicycle" speed="6.29" length="8.05" shape="95.76,135.19 94.25,135.21 92.88,134.37 91.64,132.65 90.54,130.07"/>
    </edge>
    <edge id=":359797540_5" function="internal">
        <lane id=":359797540_5_0" index="0" allow="pedestrian delivery bicycle" speed="3.65" length="4.67" shape="95.76,135.19 94.39,134.76 93.78,134.10 93.95,133.22 94.88,132.12"/>
    </edge>
    <edge id=":359797540_6" function="internal">
        <lane id=":359797540_6_0" index="0" allow="pedestrian delivery bicycle" speed="4.99" length="5.05" shape="88.52,133.97 89.79,133.39 90.55,132.55 90.80,131.44 90.54,130.07"/>
    </edge>
    <edge id=":359797540_7" function="internal">
        <lane id=":359797540_7_0" index="0" allow="pedestrian delivery bicycle" speed="5.56" length="6.62" shape="88.52,133.97 94.88,132.12"/>
    </edge>
    <edge id=":359797540_8" function="internal">
        <lane id=":359797540_8_0" index="0" allow="pedestrian delivery bicycle" speed="3.65" length="4.67" shape="88.52,133.97 89.90,134.40 90.51,135.05 90.35,135.93 89.42,137.04"/>
    </edge>
    <edge id=":359797542_0" function="internal">
        <lane id=":359797542_0_0" index="0" disallow="tram rail_urban rail rail_electric rail_fast ship" speed="6.61" length="9.32" shape="190.85,309.57 189.88,307.17 188.40,305.65 186.41,305.01 183.90,305.26"/>
    </edge>
    <edge id=":359797542_1" function="internal">
        <lane id=":359797542_1_0" index="0" disallow="tram rail_urban rail rail_electric rail_fast ship" speed="13.89" length="14.66" shape="190.85,309.57 187.31,295.35"/>
    </edge>
    <edge id=":359797542_2" function="internal">
        <lane id=":359797542_2_0" index="0" disallow="tram rail_urban rail rail_electric rail_fast ship" speed="7.94" length="14.39" shape="190.85,309.57 190.42,305.59 191.37,302.48 193.68,300.25 197.36,298.89"/>
    </edge>
    <edge id=":359797542_3" function="internal">
        <lane id=":359797542_3_0" index="0" disallow="tram rail_urban rail rail_electric rail_fast ship" speed="3.65" length="4.67" shape="190.85,309.57 191.30,308.20 191.96,307.60 192.84,307.77 193.93,308.71"/>
    </edge>
    <edge id=":359797542_4" function="internal">